******************************************************************************
* *
* TEXAS INSTRUMENTS INCORPORATED
* Standard Linear and Logic Group
* HSPICE Model for SN74AHC1G14
* PROPERTY OF TEXAS INSTRUMENTS INCORPORATED. UNAUTHORIZED
* REPRODUCTION AND/OR DISTRIBUTION IS STRICTLY PROHIBITED.
*
* THIS PRODUCT IS PROTECTED UNDER COPYRIGHT LAW.
* CREATED 2010, (C) COPYRIGHT 2010, TEXAS INSTRUMENTS
* INCORPORATED, ALL RIGHTS RESERVED
*
* UNLESS THERE IS A SIGNED, WRITTEN AGREEMENT TO THE
* CONTRARY, TEXAS INSTRUMENTS (TI) IS PROVIDING THE IBIS
* MODELS AND WITHOUT ANY WARRANTY, EXPRESSED OR
* IMPLIED. TI ASSUMES NO LIABILITY FOR:
* 1) THE ACCURACY OF THE HSPICE MODELS PROVIDED TO YOUR
* COMPANY;
* 2) THE PROPER FUNCTIONING OF THESE HSPICE MODELS IN YOUR
* DESIGN OR FOR ANY RESULTING APPLICATIONS; OR
* 3) INFRINGEMENT OF PATENTS, COPYRIGHTS OR INTELLECTUAL
* PROPERTY RIGHTS RESULTING FROM YOUR USE OF THESE HSPICE
* MODELS.
*
* TI PROVIDES HSPICE MODELS AS A SERVICE TO OUR CUSTOMERS.
* YOU AND YOUR COMPANY SHALL NOT DISTRIBUTE, SELL OR GIVE
* THESE MODELS TO ANYONE ELSE WITHOUT PRIOR WRITTEN
* PERMISSION FROM TI.
*
* TI RESERVES THE RIGHT TO MAKE CHANGES TO OUR PRODUCTS OR
* TO DISCONTINUE ANY SEMICONDUCTOR PRODUCT OR SERVICE
* WITHOUT NOTICE, AND ADVISES OUR CUSTOMERS TO OBTAIN THE
* LATEST VERSION OF RELEVANT INFORMATION TO VERIFY, BEFORE
* PLACING ORDERS, THAT THE INFORMATION BEING RELIED ON IS
* CURRENT.
*
* PLEASE BE AWARE THAT YOUR RECEIPT AND USE OF THE HSPICE
* INFORMATION PROVIDED SHALL SERVE AS ACCEPTANCE OF THESE
* TERMS AND CONDITIONS. IF YOU DO NOT ACCEPT THESE TERMS,
* YOU SHOULD RETURN OR DESTROY THE HSPICE MODELS AND ANY
* OTHER ACCOMPANYING INFORMATION IMMEDIATELY.
* SN74AHC1G14
* HSPICE NETLIST file built on Mon Aug 2 09:41:12 CDT 2010
.SUBCKT SN74AHC1G14 PE1 PE2 PE3 PE4 PE5

***PLEASE INCLUDE ONLY ONE PACKAGE***
.INCLUDE 'sot5.pkg'
* .INCLUDE 'sot5.pkg'
* .INCLUDE 'sot5.pkg'

X_SN74AHC1G14__DIE PI1 PI2 PI3 PI4 PI5 SN74AHC1G14__DIE

***PLEASE INCLUDE ONLY ONE PROCESS***
***NOMINAL or STRONG or WEAK***
.LIB 'sn74ahc1g14_process.lib' NOMINAL

**
** No globals were defined outside of .SUBCKT calls...
**

**
** The following netlist has gone through the hspice netlist cleaner,
** version v2.0 - Nov 20 2003
** on Mon Aug 2 09:41:12 CDT 2010
**

* .width IN=256

** Added by cleaner script...
.SUBCKT SN74AHC1G14__DIE NC A CGND Y CVCC
.PROT freelib
5a2Z[7-u#/js;B-i:'%ep$v,C'/25B]+):fJ5H#uC(1y)e-u>9%J;X5i#'%s$B-,(2/e5BvwC'f:9H]uC:xJ5ejH>(%J)[
gp:K-A[7gd+%X:Z<*Q
7CD78=#$:b 2[O\;:K-A[7[*%[/GH#8
oQc8Z<=#k390J$s2 O9>P[s##+\x46_v+:D[*5H+4Y
3dg>.3w%N[ $s9/%9>P[s#/6k>2>6*/Ac$ad7%(39C*7Br+Y
3dgWRSP:B%2E7GD+%xa<sGw'F>gWRSq
H*[ /7Z w:=>[=2p>CD H08
q
y
e0mxsW2:odi[/# O9[!$#zw%\>a$uQP(9I*7[
kp:=P28O# <9>p[S#t%fX4y])biA -5CF<30y23_7bLr9hZbF.5[41L
T#$O)Y=rk-XWi944F3X>:]kn=*R:50*Kk)BCe*+nuf<3e/s4c,P27xiv_7BlV%[,TrXp;9HzBf.5[41l
T#T<)Y=rk-<I8v-0c,Ph']kn=$RY
e2Zv9#9Q]>>l
!z![k,'$1h/Qm4'$4\w0072[o\;:k-a[[
gt'%Xd\%#/Z=P2P!Rty
3dg>#3w0072h##/z=p2[o\;:odZ[// %Fx4YJj+:RAHzirq
7CDO6=#vRxX787gY%KXA<SgWuC$AD6*/a9i*77X(m$10
Z0\;<9=>[6T! 6
BU\-g\ 9mG8SHW+%Xza7\K:KgzV7X(3/Xly=8
939[ $#2w+BxaA#dw+k;2,_7BlD9HzBf.5[41$,QRlVI[7!-.ba mK[
aW'%a1RK)UH$V[,C,pH:/K4f3tX9=Uy])bL'Bt0fX.5[BS)CF<3]y26YqrLvTjNUa4HI][7!-.BA Mk[
aW2ba1RK)U5d:+Z<F<3E%K4f3!X6
B(8YZWuC[AD[
+KR->]J7c 698z$M$2:KgzV7gY%KX46_;+:d[*7x8
oQcMZ77t! 98Z$s2 O9>!8y#9Q=>>.#G*:RAH$uQRI=9HK[
4SqO$h$M$2:W[2[+g/:K-A[7kS2K;G6SHWF) 2,_7M2A 1L
!< OBx78+8
X<03aM%#$Ak s.4\w!=xD\%#/z=p2[+G/Y
k$;v7C :kGZv7jXp]z
F.6Cc3ux787GD+%xL<%z/;6
eG.\\p:M4'$93W%n[ $S2 o9mG8SHS+K;2,_-l:rahL
)/sU=%2/B#VrXxaA#dw%N[ $\/ %FdZ[/#m-$xLY=8
oQcMi77t! 90H$s9/%9>P[s#9Q]>>..G*:RAH$uQiC6
eG.\*U:b%2wrsW%\>A$S9/%9mG6SHS2K;23_3Wi) SL
)/sU]U2WRSw<'xa<sGw%\>a$\/T%Fdi[/#m-u123_3q
7CDzT9Dp:K-A[7gY%KXUP7gd+%XO.#g*q=>>$Uq4(9i*7[
4Sq=2UVb#K(90h$93W%n[ $\/ %fDz[/#M-I123_3Q
7CDzT9D3:b 2[O\;:KgzV7gd+%XO.#g*q=>>$Uq4(9i*7[
')<%XU77c :U1:$9g$F*aI:#X)FrX'[_Vxm:*(=j=pH'HjT3RQ
H*[ /7[*%[/GH#8
X<03aM%#=6X0a:7*$O9>!8y8
oQcpH$.[;:]= $y/ Icpg6#r+:56(G_-J(6
eG.\\p:]= $S2 o9>!8Y#/Z=P2>6\/aC[AD7%(39c*(<8
X9=pu$,92<k60
Z9$f%472V6\M:O8z\9#tF002g8<$-[1:L
y3w2R4u$\C rBx ..\4(9=3t1QRl56(GF3X>:]1l
!< OBx .#xq
y
a90
Nf#2a*X\w,%viW[!$!Z![K,'/7X);*X;VY<;:-o2J/<W%r2;80'W%MmOg#Dxy
a92j/<k99=3t7')4083ty##+9.3v0'w mx3t\ty997>t7zT!k2g>md)f9$;:1K) *6uz[
,<y
6
92>MD#TW2 $%H):ODz[/# 9xi7/%#[0YX'D0# %fXU64g):O. T,+xH6
BU\-g\ 9mG8SHS+K;28Y# Z9[U$S2 o9c*7x#=-[Z
o77\;:=G289#/z=p28shwI)Y=ru,Ph']kn=$R:RA1rk%<3e%k4F3!x6
:2gYqrLvTjZIR<i;9hZhV.BA Ik7[K-7T=Rb+jPAcKN=+I>;][7.7W2%a1RK)U5d:+Z<F<3E%K4f3!X6
:269qrLvTjNUa4HI][7!-.BA Mk[
+)+%02>6\/aC[AD[
8
q
59mdV4:#9%X'D0#;q=c280s=!b72 M'W f22V6* P/XU64g):O. T,+xH6
BU\-g\ 9PG8U/;q][+P7k#+0026,$K:56(g_3+(6
Ph$.%!<9m78rZWoC$z0x#$;*=*kK[5959hZhV.X6
B(8YZWoC[4.Y/t+I10
L
[
,WuMP7 4<;:x;($\/t%fXzT%%#<xX\w8#2a*XI[/#K2W>($\T;9rB-Z[
+KR->]J7kS2K;G6SHW+%Xza7\K:K-A[7X(3/Xly=8
939[ $#2w+Bxa<sGw2k;2,_7BlD9HzBf.5[41$,QRlVI[7!-.ba mK[
aW'%a1RK)UH$V[,C,pH:/K4f3tX9=Uy])bL'Bt0fX.5[BS)CF<3]y26YqrLvTjNUa4HI][7!-.BA Mk[
aW2ba1RK)U5d:+Z<F<3E%K4f3!X6
B(8YZWuC$AD6*/a6
Z
0
Zr\t;M70
.UNPROT

.ENDS SN74AHC1G14
